  1 'GENROU'  1     5.0000      0.60000E-01  0.20000      0.60000E-01
          3.0000       0.0000       1.6000       1.5500      0.70000    
         0.85000      0.35000      0.20000      0.90000E-01  0.38000    /
   1 'IEEET1'  1     0.0000       400.00      0.40000E-01   7.3000    
         -7.3000       1.0000      0.80000      0.30000E-01   1.0000    
          0.0000       2.4700      0.35000E-01   4.5000      0.47000    /
	1 'TGOV1'   1    0.50000E-01  0.50000E-01   1.0500      0.30000    
          1.0000       1.0000       0.0000    /
 1 'IEELAR' '1'     0.0000       1.0000       0.0000       1.0000
      0.0000       0.0000       1.0000      -1.0000       2.0000
      1.0000       0.0000       2.0000       1.0000       0.0000    /